# created with PyMOL 2.5.4
@<TRIPOS>MOLECULE
gly
14 13 1                 
SMALL
USER_CHARGES
@<TRIPOS>ATOM
      1 C1        33.3844    62.3222    52.1564 C.3      1 GLY1        0.0000
      2 O1        33.9884    62.8614    50.9818 O.3      1 GLY1        0.0000
      3 C2        34.3974    62.2326    53.3306 C.3      1 GLY1        0.0000
      4 O2        34.7316    61.4316    55.6452 O.3      1 GLY1        0.0000
      5 C3        33.7716    61.5777    54.5931 C.3      1 GLY1        0.0000
      6 O3        34.8848    63.5348    53.6603 O.3      1 GLY1        0.0000
      7 H1        34.4324    63.6622    51.2920 H        1 GLY1        0.0000
      8 H2        33.0007    61.3062    51.9194 H        1 GLY1        0.0000
      9 H3        32.5256    62.9615    52.4575 H        1 GLY1        0.0000
     10 H4        35.2566    61.6038    52.9990 H        1 GLY1        0.0000
     11 H5        33.3763    60.5748    54.3181 H        1 GLY1        0.0000
     12 H6        32.9245    62.2090    54.9435 H        1 GLY1        0.0000
     13 H7        34.2992    60.9846    56.3816 H        1 GLY1        0.0000
     14 H8        35.3717    63.3855    54.4813 H        1 GLY1        0.0000
@<TRIPOS>BOND
1 1 3 1
2 1 8 1
3 1 9 1
4 1 2 1
5 2 7 1
6 3 5 1
7 3 6 1
8 3 10 1
9 4 13 1
10 4 5 1
11 5 11 1
12 5 12 1
13 6 14 1
@<TRIPOS>SUBSTRUCTURE
1	GLY1	1	RESIDUE	1 G	GLY
