gly
 OpenBabel07072612123D

 14 13  0  0  0  0  0  0  0  0999 V2000
   -0.5500    1.4600   -0.0060 C   0  0  0  0  0  0  0  0  0  0  0  0
   -1.9760    1.4820    0.0310 O   0  0  0  0  0  0  0  0  0  0  0  0
   -0.0010    0.0070   -0.0270 C   0  0  0  0  0  0  0  0  0  0  0  0
    2.0480   -1.3730    0.0630 O   0  0  0  0  0  0  0  0  0  0  0  0
    1.5520   -0.0310    0.0080 C   0  0  0  0  0  0  0  0  0  0  0  0
   -0.4690   -0.6790   -1.1900 O   0  0  0  0  0  0  0  0  0  0  0  0
   -2.2390    0.8820   -0.6800 H   0  0  0  0  0  0  0  0  0  0  0  0
   -0.1670    1.9880    0.8940 H   0  0  0  0  0  0  0  0  0  0  0  0
   -0.1950    2.0020   -0.9100 H   0  0  0  0  0  0  0  0  0  0  0  0
   -0.3850   -0.5210    0.8770 H   0  0  0  0  0  0  0  0  0  0  0  0
    1.9040    0.5250    0.9050 H   0  0  0  0  0  0  0  0  0  0  0  0
    1.9450    0.4770   -0.9010 H   0  0  0  0  0  0  0  0  0  0  0  0
    3.0090   -1.3320    0.1250 H   0  0  0  0  0  0  0  0  0  0  0  0
    0.0450   -1.4970   -1.1840 H   0  0  0  0  0  0  0  0  0  0  0  0
  1  3  1  0  0  0  0
  1  8  1  0  0  0  0
  1  9  1  0  0  0  0
  1  2  1  0  0  0  0
  2  7  1  0  0  0  0
  3  5  1  0  0  0  0
  3  6  1  0  0  0  0
  3 10  1  0  0  0  0
  4 13  1  0  0  0  0
  4  5  1  0  0  0  0
  5 11  1  0  0  0  0
  5 12  1  0  0  0  0
  6 14  1  0  0  0  0
M  END
$$$$
