ligandrm
 OpenBabel07072612123D

 26 25  0  0  1  0  0  0  0  0999 V2000
    0.6260   -0.2730   -7.8900 C   0  0  0  0  0  0  0  0  0  0  0  0
    0.9690   -1.2300   -8.8970 O   0  0  0  0  0  0  0  0  0  0  0  0
    1.8360    0.2180   -7.1160 C   0  0  1  0  0  0  0  0  0  0  0  0
    2.6750    0.9770   -8.0010 O   0  0  0  0  0  0  0  0  0  0  0  0
    1.4750    1.1210   -5.9300 C   0  0  2  0  0  0  0  0  0  0  0  0
    2.7070    1.5000   -5.2990 O   0  0  0  0  0  0  0  0  0  0  0  0
    0.5360    0.4840   -4.8960 C   0  0  1  0  0  0  0  0  0  0  0  0
    1.1680   -0.6570   -4.2960 O   0  0  0  0  0  0  0  0  0  0  0  0
    0.0120    1.4200   -3.7990 C   0  0  1  0  0  0  0  0  0  0  0  0
   -0.9630    0.7130   -3.0210 O   0  0  0  0  0  0  0  0  0  0  0  0
    1.0800    1.9630   -2.8650 C   0  0  0  0  0  0  0  0  0  0  0  0
    0.5040    2.8020   -1.8600 O   0  0  0  0  0  0  0  0  0  0  0  0
    0.9740   -0.7600   -9.7370 H   0  0  0  0  0  0  0  0  0  0  0  0
    3.2240    1.4870   -7.3890 H   0  0  0  0  0  0  0  0  0  0  0  0
    2.8510    0.7870   -4.6520 H   0  0  0  0  0  0  0  0  0  0  0  0
    0.5600   -0.8950   -3.5790 H   0  0  0  0  0  0  0  0  0  0  0  0
   -0.9660    1.2010   -2.1820 H   0  0  0  0  0  0  0  0  0  0  0  0
    0.9850    3.6380   -1.8920 H   0  0  0  0  0  0  0  0  0  0  0  0
    2.4100   -0.6630   -6.7360 H   0  0  0  0  0  0  0  0  0  0  0  0
    0.9810    2.0390   -6.3320 H   0  0  0  0  0  0  0  0  0  0  0  0
   -0.3810    0.1320   -5.4250 H   0  0  0  0  0  0  0  0  0  0  0  0
   -0.5070    2.2790   -4.2870 H   0  0  0  0  0  0  0  0  0  0  0  0
   -0.0710   -0.8030   -7.2110 H   0  0  0  0  0  0  0  0  0  0  0  0
    0.0910    0.5880   -8.3490 H   0  0  0  0  0  0  0  0  0  0  0  0
    1.7980    2.5940   -3.4260 H   0  0  0  0  0  0  0  0  0  0  0  0
    1.6420    1.1270   -2.3880 H   0  0  0  0  0  0  0  0  0  0  0  0
  1  2  1  0  0  0  0
  1  3  1  0  0  0  0
  1 23  1  0  0  0  0
  1 24  1  0  0  0  0
  2 13  1  0  0  0  0
  3  4  1  0  0  0  0
  3  5  1  0  0  0  0
  3 19  1  1  0  0  0
  4 14  1  0  0  0  0
  5  6  1  0  0  0  0
  5  7  1  0  0  0  0
  5 20  1  6  0  0  0
  6 15  1  0  0  0  0
  7  8  1  0  0  0  0
  7  9  1  0  0  0  0
  7 21  1  6  0  0  0
  8 16  1  0  0  0  0
  9 10  1  0  0  0  0
  9 11  1  0  0  0  0
  9 22  1  6  0  0  0
 10 17  1  0  0  0  0
 11 12  1  0  0  0  0
 11 25  1  0  0  0  0
 11 26  1  0  0  0  0
 12 18  1  0  0  0  0
M  END
$$$$
