# created with PyMOL 2.5.4
@<TRIPOS>MOLECULE
ligandrm
26 25 1                 
SMALL
USER_CHARGES
@<TRIPOS>ATOM
      1 C1        33.3914    62.3653    52.1837 C.3      1 DGL1        0.0000
      2 O1        33.9800    62.8400    50.9688 O.3      1 DGL1        0.0000
      3 C2        34.4047    62.2203    53.3047 C.3      1 DGL1        0.0000
      4 O2        34.8789    63.5255    53.6718 O.3      1 DGL1        0.0000
      5 C3        33.8284    61.5639    54.5654 C.3      1 DGL1        0.0000
      6 O3        34.8920    61.4916    55.5262 O.3      1 DGL1        0.0000
      7 C4        33.2277    60.1678    54.3492 C.3      1 DGL1        0.0000
      8 O4        34.2465    59.2579    53.9073 O.3      1 DGL1        0.0000
      9 C5        32.4819    59.5654    55.5472 C.3      1 DGL1        0.0000
     10 O5        31.8560    58.3447    55.1302 O.3      1 DGL1        0.0000
     11 C6        33.3538    59.2772    56.7574 C.3      1 DGL1        0.0000
     12 O6        32.5870    58.6945    57.8148 O.3      1 DGL1        0.0000
     13 HO1       33.7736    63.7782    50.9080 H        1 DGL1        0.0000
     14 HO2       35.2560    63.3759    54.5501 H        1 DGL1        0.0000
     15 HO3       35.3097    60.6350    55.3278 H        1 DGL1        0.0000
     16 HO4       33.8007    58.3971    53.9335 H        1 DGL1        0.0000
     17 HO5       31.7366    57.8659    55.9660 H        1 DGL1        0.0000
     18 HO6       32.7503    59.2313    58.5999 H        1 DGL1        0.0000
     19 H2        35.2670    61.6080    52.9421 H        1 DGL1        0.0000
     20 H3        33.0272    62.2308    54.9672 H        1 DGL1        0.0000
     21 H4        32.4563    60.2385    53.5463 H        1 DGL1        0.0000
     22 H5        31.6722    60.2714    55.8494 H        1 DGL1        0.0000
     23 H11       32.9597    61.3767    51.9304 H        1 DGL1        0.0000
     24 H12       32.5678    63.0439    52.4987 H        1 DGL1        0.0000
     25 H61       33.7778    60.2187    57.1600 H        1 DGL1        0.0000
     26 H62       34.1953    58.6014    56.4791 H        1 DGL1        0.0000
@<TRIPOS>BOND
1 1 2 1
2 1 3 1
3 1 23 1
4 1 24 1
5 2 13 1
6 3 4 1
7 3 5 1
8 3 19 1
9 4 14 1
10 5 6 1
11 5 7 1
12 5 20 1
13 6 15 1
14 7 8 1
15 7 9 1
16 7 21 1
17 8 16 1
18 9 10 1
19 9 11 1
20 9 22 1
21 10 17 1
22 11 12 1
23 11 25 1
24 11 26 1
25 12 18 1
@<TRIPOS>SUBSTRUCTURE
1	DGL1	1	GROUP	1 D	DGL
