# created with PyMOL 2.5.4
@<TRIPOS>MOLECULE
threitol_(2S,3S)
18 17 1                 
SMALL
USER_CHARGES
@<TRIPOS>ATOM
      1 C1           1.5660    -0.2590     0.3780 C.3         1 ERY1       0.000000
      2 O1           2.0400    -1.5300    -0.0650 O.3         1 ERY1       0.000000
      3 C2           0.0500    -0.0830     0.0800 C.3         1 ERY1       0.000000
      4 O2          -2.4960     2.6240     0.9360 O.3         1 ERY1       0.000000
      5 C3          -0.4680     1.2530     0.6150 C.3         1 ERY1       0.000000
      6 O3           0.2350     2.3480     0.0170 O.3         1 ERY1       0.000000
      7 C4          -1.9960     1.4050     0.3750 C.3         1 ERY1       0.000000
      8 O4          -0.2070    -0.1910    -1.3250 O.3         1 ERY1       0.000000
      9 H1           1.7020    -1.6190    -0.9650 H           1 ERY1       0.000000
     10 H2           2.1480     0.5490    -0.1190 H           1 ERY1       0.000000
     11 H3           1.7380    -0.1820     1.4730 H           1 ERY1       0.000000
     12 H4          -0.4990    -0.9080     0.5920 H           1 ERY1       0.000000
     13 H5          -0.2850     1.2850     1.7150 H           1 ERY1       0.000000
     14 H6          -2.5210     0.5440     0.8460 H           1 ERY1       0.000000
     15 H7          -2.2050     1.3840    -0.7190 H           1 ERY1       0.000000
     16 H8          -3.4460     2.6510     0.7780 H           1 ERY1       0.000000
     17 H9          -0.2840     3.1190     0.2850 H           1 ERY1       0.000000
     18 H10          0.1620     0.6280    -1.6830 H           1 ERY1       0.000000
@<TRIPOS>BOND
1 1 3 1
2 1 10 1
3 1 11 1
4 1 2 1
5 2 9 1
6 3 5 1
7 3 8 1
8 3 12 1
9 4 16 1
10 5 6 1
11 5 7 1
12 5 13 1
13 6 17 1
14 4 7 1
15 7 14 1
16 7 15 1
17 8 18 1
@<TRIPOS>SUBSTRUCTURE
1	ERY1	1	GROUP	1 E	ERY
