threitol_(2S,3S)
     RDKit          3D

 18 17  0  0  1  0  0  0  0  0999 V2000
    1.5660   -0.2590    0.3780 C   0  0  0  0  0  0  0  0  0  0  0  0
    2.0400   -1.5300   -0.0650 O   0  0  0  0  0  0  0  0  0  0  0  0
    0.0500   -0.0830    0.0800 C   0  0  1  0  0  0  0  0  0  0  0  0
   -2.4960    2.6240    0.9360 O   0  0  0  0  0  0  0  0  0  0  0  0
   -0.4680    1.2530    0.6150 C   0  0  1  0  0  0  0  0  0  0  0  0
    0.2350    2.3480    0.0170 O   0  0  0  0  0  0  0  0  0  0  0  0
   -1.9960    1.4050    0.3750 C   0  0  0  0  0  0  0  0  0  0  0  0
   -0.2070   -0.1910   -1.3250 O   0  0  0  0  0  0  0  0  0  0  0  0
    1.7020   -1.6190   -0.9650 H   0  0  0  0  0  0  0  0  0  0  0  0
    2.1480    0.5490   -0.1190 H   0  0  0  0  0  0  0  0  0  0  0  0
    1.7380   -0.1820    1.4730 H   0  0  0  0  0  0  0  0  0  0  0  0
   -0.4990   -0.9080    0.5920 H   0  0  0  0  0  0  0  0  0  0  0  0
   -0.2850    1.2850    1.7150 H   0  0  0  0  0  0  0  0  0  0  0  0
   -2.5210    0.5440    0.8460 H   0  0  0  0  0  0  0  0  0  0  0  0
   -2.2050    1.3840   -0.7190 H   0  0  0  0  0  0  0  0  0  0  0  0
   -3.4460    2.6510    0.7780 H   0  0  0  0  0  0  0  0  0  0  0  0
   -0.2840    3.1190    0.2850 H   0  0  0  0  0  0  0  0  0  0  0  0
    0.1620    0.6280   -1.6830 H   0  0  0  0  0  0  0  0  0  0  0  0
  1  3  1  0
  1 10  1  0
  1 11  1  0
  1  2  1  0
  2  9  1  0
  3  5  1  0
  3  8  1  0
  3 12  1  1
  4 16  1  0
  4  7  1  0
  5  6  1  0
  5  7  1  0
  5 13  1  1
  6 17  1  0
  7 14  1  0
  7 15  1  0
  8 18  1  0
M  END
$$$$
