# created with PyMOL 2.5.4
@<TRIPOS>MOLECULE
ligandrm
22 21 1                 
SMALL
USER_CHARGES
@<TRIPOS>ATOM
      1 C1        33.8608    61.9808    52.0338 C.3      1 LAR1        0.0000
      2 O1        33.7405    63.0503    51.0937 O.3      1 LAR1        0.0000
      3 C2        33.9357    62.5584    53.4321 C.3      1 LAR1        0.0000
      4 O2        35.1180    63.3615    53.5695 O.3      1 LAR1        0.0000
      5 C3        33.9304    61.4717    54.4979 C.3      1 LAR1        0.0000
      6 O3        35.0559    60.6035    54.2667 O.3      1 LAR1        0.0000
      7 C4        33.9900    62.0242    55.9215 C.3      1 LAR1        0.0000
      8 O4        33.9274    60.9359    56.8558 O.3      1 LAR1        0.0000
      9 C5        32.8278    62.9482    56.2398 C.3      1 LAR1        0.0000
     10 O5        32.9536    63.4675    57.5703 O.3      1 LAR1        0.0000
     11 HO1       34.4167    63.6841    51.3702 H        1 LAR1        0.0000
     12 HO2       35.7977    62.7121    53.7999 H        1 LAR1        0.0000
     13 HO3       34.9409    59.8786    54.8957 H        1 LAR1        0.0000
     14 HO4       33.5993    61.3625    57.6623 H        1 LAR1        0.0000
     15 HO5       33.4524    64.2918    57.5178 H        1 LAR1        0.0000
     16 H2        33.0433    63.2165    53.5557 H        1 LAR1        0.0000
     17 H3        32.9967    60.8704    54.3870 H        1 LAR1        0.0000
     18 H4        34.9499    62.5726    56.0731 H        1 LAR1        0.0000
     19 H11       34.7620    61.3708    51.7979 H        1 LAR1        0.0000
     20 H12       32.9651    61.3278    51.9384 H        1 LAR1        0.0000
     21 H51       31.8672    62.3875    56.1563 H        1 LAR1        0.0000
     22 H52       32.7839    63.8090    55.5391 H        1 LAR1        0.0000
@<TRIPOS>BOND
1 1 2 1
2 1 3 1
3 1 19 1
4 1 20 1
5 2 11 1
6 3 4 1
7 3 5 1
8 3 16 1
9 4 12 1
10 5 6 1
11 5 7 1
12 5 17 1
13 6 13 1
14 7 8 1
15 7 9 1
16 7 18 1
17 8 14 1
18 9 10 1
19 9 21 1
20 9 22 1
21 10 15 1
@<TRIPOS>SUBSTRUCTURE
1	LAR1	1	GROUP	1 L	LAR
