ligandrm
 OpenBabel07072612123D

 22 21  0  0  1  0  0  0  0  0999 V2000
   -0.3800    0.9220   -2.5730 C   0  0  0  0  0  0  0  0  0  0  0  0
   -1.4760    0.7410   -3.4720 O   0  0  0  0  0  0  0  0  0  0  0  0
   -0.4300   -0.1560   -1.5100 C   0  0  2  0  0  0  0  0  0  0  0  0
   -1.6280   -0.0220   -0.7300 O   0  0  0  0  0  0  0  0  0  0  0  0
    0.7840   -0.1080   -0.5930 C   0  0  1  0  0  0  0  0  0  0  0  0
    0.8320    1.1900    0.0290 O   0  0  0  0  0  0  0  0  0  0  0  0
    0.7700   -1.1940    0.4820 C   0  0  2  0  0  0  0  0  0  0  0  0
    1.9720   -1.1050    1.2620 O   0  0  0  0  0  0  0  0  0  0  0  0
    0.7240   -2.5950   -0.1020 C   0  0  0  0  0  0  0  0  0  0  0  0
    0.6730   -3.5710    0.9470 O   0  0  0  0  0  0  0  0  0  0  0  0
   -2.2370    0.6040   -2.8910 H   0  0  0  0  0  0  0  0  0  0  0  0
   -1.3800    0.6300   -0.0590 H   0  0  0  0  0  0  0  0  0  0  0  0
    1.6720    1.2030    0.5070 H   0  0  0  0  0  0  0  0  0  0  0  0
    2.0570   -1.9980    1.6300 H   0  0  0  0  0  0  0  0  0  0  0  0
   -0.2560   -3.7410    1.1450 H   0  0  0  0  0  0  0  0  0  0  0  0
   -0.4630   -1.1340   -2.0460 H   0  0  0  0  0  0  0  0  0  0  0  0
    1.7030   -0.2320   -1.2140 H   0  0  0  0  0  0  0  0  0  0  0  0
   -0.1070   -1.0460    1.1560 H   0  0  0  0  0  0  0  0  0  0  0  0
   -0.4260    1.9390   -2.1220 H   0  0  0  0  0  0  0  0  0  0  0  0
    0.5660    0.8420   -3.1530 H   0  0  0  0  0  0  0  0  0  0  0  0
    1.6330   -2.7740   -0.7230 H   0  0  0  0  0  0  0  0  0  0  0  0
   -0.1670   -2.7410   -0.7490 H   0  0  0  0  0  0  0  0  0  0  0  0
  1  2  1  0  0  0  0
  1  3  1  0  0  0  0
  1 19  1  0  0  0  0
  1 20  1  0  0  0  0
  2 11  1  0  0  0  0
  3  4  1  0  0  0  0
  3  5  1  0  0  0  0
  3 16  1  6  0  0  0
  4 12  1  0  0  0  0
  5  6  1  0  0  0  0
  5  7  1  0  0  0  0
  5 17  1  6  0  0  0
  6 13  1  0  0  0  0
  7  8  1  0  0  0  0
  7  9  1  0  0  0  0
  7 18  1  1  0  0  0
  8 14  1  0  0  0  0
  9 10  1  0  0  0  0
  9 21  1  0  0  0  0
  9 22  1  0  0  0  0
 10 15  1  0  0  0  0
M  END
$$$$
